283

Si      12.35727845      17.38041908      16.71167900       0.00000000
Si      12.70850006      13.70850008      13.12549988       0.00000000
Si       9.49243428      17.73123492      13.32391904       0.00000000
Si       9.12549989      13.70850008      16.70849996       0.00000000
Si       7.68654280      15.52426091      14.53302391       0.00000000
Si      10.91700012      11.91699985      14.91699992       0.00000000
Si      11.24400789      15.98178929      11.59096484       0.00000000
Si       7.33399995      11.91699985      18.50000000       0.00000000
Si      12.59837082      17.39009883      24.07594033       0.00000000
Si      12.70850006      13.70850008      20.29150004       0.00000000
Si       8.82218309      17.36063488      20.44843480       0.00000000
Si       9.12549989      13.70850008      23.87450012       0.00000000
Si       7.03398045      15.54980212      22.29184251       0.00000000
Si      10.91700012      11.91699985      22.08300008       0.00000000
Si      10.73772415      15.64777111      18.67677860       0.00000000
Si      14.50000000      11.91699985      11.33399984       0.00000000
Si      19.58510795      17.24023398      16.78956622       0.00000000
Si      19.87450011      13.70850008      13.12549988       0.00000000
Si      15.98726587      17.36296949      13.19124000       0.00000000
Si      16.29149994      13.70850008      16.70849996       0.00000000
Si      14.30694468      15.61319340      15.08243358       0.00000000
Si      18.08299988      11.91699985      14.91699992       0.00000000
Si      17.88171726      15.60709043      11.46153033       0.00000000
Si      14.50000000      11.91699985      18.50000000       0.00000000
Si      18.99766771      17.66081780      23.64949979       0.00000000
Si      19.87450011      13.70850008      20.29150004       0.00000000
Si      15.90136729      17.38343228      20.27540578       0.00000000
Si      16.29149994      13.70850008      23.87450012       0.00000000
Si      14.32539883      15.62880438      22.24951303       0.00000000
Si      18.08299988      11.91699985      22.08300008       0.00000000
Si      17.88197739      15.63353498      18.72276886       0.00000000
Si       7.33399995      11.91699985      25.66600016       0.00000000
Si      10.71331717      15.68418185      25.87134054       0.00000000
Si      14.50000000      11.91699985      25.66600016       0.00000000
Si      18.15521568      15.51496804      25.79086554       0.00000000
Si       7.44097689      19.13058825      11.57611637       0.00000000
Si      10.73824093      19.51162847      15.31205928       0.00000000
Si       6.87730070      18.25310845      18.25141513       0.00000000
Si      10.51497196      19.17091088      22.51980580       0.00000000
Si      14.31851858      19.58061587      12.21015059       0.00000000
Si      18.53300129      18.73154664      14.32362389       0.00000000
Si      14.47049598      19.07244868      18.19117173       0.00000000
Si      17.23597281      19.56607377      22.00177472       0.00000000
Si      14.50214484      18.93467259      26.04926392       0.00000000
Si      21.66600005      11.91699985      11.33399984       0.00000000
Si      21.51490454      15.57650769      15.15155402       0.00000000
Si      21.66600005      11.91699985      18.50000000       0.00000000
Si      20.95484088      15.91717940      22.22961850       0.00000000
Si      20.76406351      19.57976275      18.39453890       0.00000000
Si      21.74587098      18.86214158      24.57465741       0.00000000
O        7.55924933      14.70880188      13.11674161       0.00000000
O        6.20597738      16.08857716      15.03139097       0.00000000
O        8.11182084      14.54051218      15.73048340       0.00000000
O        8.72272788      16.77404296      14.38954346       0.00000000
O       10.02124986      11.02124989      14.02124990       0.00000000
O       10.02124986      12.81275012      15.81274994       0.00000000
O       11.81275009      11.02124989      15.81274994       0.00000000
O       11.81275009      12.81275012      14.02124990       0.00000000
O        9.91642501      15.75249934      10.65027462       0.00000000
O       10.85187105      16.99714934      12.81883278       0.00000000
O       11.67866917      14.52037272      12.12009592       0.00000000
O       12.44360507      16.73257116      10.73700151       0.00000000
O        6.43824998      11.02124989      17.60424998       0.00000000
O        6.43824998      12.81275012      19.39575002       0.00000000
O        8.22974992      11.02124989      19.39575002       0.00000000
O        8.22974992      12.81275012      17.60424998       0.00000000
O        6.09801154      14.54634142      21.38853191       0.00000000
O        6.10356127      16.29648238      23.41918959       0.00000000
O        8.23505257      14.67525554      22.92067009       0.00000000
O        7.64638824      16.77229239      21.40758025       0.00000000
O       10.02124986      11.02124989      21.18725006       0.00000000
O       10.02124986      12.81275012      22.97875010       0.00000000
O       11.81275009      11.02124989      22.97875010       0.00000000
O       11.81275009      12.81275012      21.18725006       0.00000000
O        9.99728542      14.79100644      17.52461932       0.00000000
O        9.64681056      16.12931705      19.78551024       0.00000000
O       11.80934984      14.69499200      19.37991994       0.00000000
O       11.49081703      16.94299761      18.03073492       0.00000000
O       13.60425003      11.02124989      10.43824982       0.00000000
O       13.60425003      12.81275012      12.22974986       0.00000000
O       15.39574997      11.02124989      12.22974986       0.00000000
O       15.39574997      12.81275012      10.43824982       0.00000000
O       13.56875954      14.85815740      13.85400028       0.00000000
O       13.16256205      16.09133585      16.13414600       0.00000000
O       15.32340425      14.58015994      15.74444942       0.00000000
O       15.13859131      16.88042442      14.48671693       0.00000000
O       17.18724991      11.02124989      14.02124990       0.00000000
O       17.18724991      12.81275012      15.81274994       0.00000000
O       18.97875014      11.02124989      15.81274994       0.00000000
O       18.97875014      12.81275012      14.02124990       0.00000000
O       17.04967797      14.91223411      10.21173175       0.00000000
O       16.72087945      16.07760130      12.48998011       0.00000000
O       18.90984005      14.54938903      12.08362391       0.00000000
O       18.69614166      16.97994744      10.99800136       0.00000000
O       13.60425003      11.02124989      17.60424998       0.00000000
O       13.60425003      12.81275012      19.39575002       0.00000000
O       15.39574997      11.02124989      19.39575002       0.00000000
O       15.39574997      12.81275012      17.60424998       0.00000000
O       13.69071150      14.65143607      21.16022341       0.00000000
O       13.15935175      16.08614211      23.29450699       0.00000000
O       15.47594599      14.81870401      23.03931873       0.00000000
O       14.95392076      16.94815756      21.53232612       0.00000000
O       17.18724991      11.02124989      21.18725006       0.00000000
O       17.18724991      12.81275012      22.97875010       0.00000000
O       18.97875014      11.02124989      22.97875010       0.00000000
O       18.97875014      12.81275012      21.18725006       0.00000000
O       17.13609623      14.77451103      17.58821825       0.00000000
O       16.87599291      16.13242821      19.90176091       0.00000000
O       19.01112400      14.69499262      19.37421491       0.00000000
O       18.62626471      16.91622105      18.06003300       0.00000000
O        6.43824998      11.02124989      24.77025014       0.00000000
O        6.43824998      12.81275012      26.56175018       0.00000000
O        8.22974992      11.02124989      26.56175018       0.00000000
O        8.22974992      12.81275012      24.77025014       0.00000000
O       10.04364018      14.71043527      24.77611094       0.00000000
O        9.62124358      16.24259477      26.95903324       0.00000000
O       11.87724348      14.87476038      26.72207599       0.00000000
O       11.47879508      16.92534621      25.15979687       0.00000000
O       13.60425003      11.02124989      24.77025014       0.00000000
O       13.60425003      12.81275012      26.56175018       0.00000000
O       15.39574997      11.02124989      26.56175018       0.00000000
O       15.39574997      12.81275012      24.77025014       0.00000000
O       17.30551075      14.52947308      24.85765894       0.00000000
O       17.16766418      15.93400000      27.05535867       0.00000000
O       19.48874994      14.79293340      26.41964872       0.00000000
O       18.56325148      16.86970369      24.99758776       0.00000000
O        5.98495185      18.37122992      11.64674123       0.00000000
O        7.56044065      20.40398114      12.59854070       0.00000000
O        8.53562597      17.97114392      12.00382638       0.00000000
O        7.66608069      19.60215653      10.01643021       0.00000000
O        9.76335808      19.19539809      13.99172205       0.00000000
O        9.84250401      20.08338131      16.54111603       0.00000000
O       11.36073985      18.00475319      15.59487766       0.00000000
O       11.84723167      20.63987533      15.00085672       0.00000000
O        6.74417127      16.72606736      17.70785442       0.00000000
O        5.51070644      18.85935282      18.93828387       0.00000000
O        8.12974197      18.28674004      19.30261473       0.00000000
O        7.21616744      19.29697424      17.00575463       0.00000000
O        9.85455757      18.28478580      21.30030282       0.00000000
O       11.89794020      18.42591454      23.03223952       0.00000000
O       12.83305216      19.51605620      11.54153654       0.00000000
O       14.19496582      20.07358407      13.77019306       0.00000000
O       14.95494446      18.04203348      12.11329310       0.00000000
O       15.30078860      20.66534431      11.45830208       0.00000000
O       17.08838978      18.48022189      13.59149453       0.00000000
O       18.61170816      20.25147974      14.87936870       0.00000000
O       18.65400553      17.62196984      15.51741483       0.00000000
O       19.77517540      18.44464939      13.27234215       0.00000000
O       13.40972644      18.54893463      17.07819841       0.00000000
O       13.56187494      19.96397489      19.29114362       0.00000000
O       15.02632564      17.73339872      18.95052088       0.00000000
O       15.61745758      19.98308267      17.55437842       0.00000000
O       16.72015068      18.71642794      20.70603250       0.00000000
O       15.98310002      20.44893920      22.62407920       0.00000000
O       17.71151829      18.51565954      23.16814829       0.00000000
O       18.42411731      20.57854524      21.56705543       0.00000000
O       13.85316834      18.11406229      24.80596735       0.00000000
O       13.36924592      19.78250864      26.88091773       0.00000000
O       15.31158559      18.02130657      27.11733663       0.00000000
O       15.45739034      20.06202076      25.28182731       0.00000000
O       20.77025008      11.02124989      10.43824982       0.00000000
O       20.77025008      12.81275012      12.22974986       0.00000000
O       22.56175002      11.02124989      12.22974986       0.00000000
O       22.56175002      12.81275012      10.43824982       0.00000000
O       20.68993400      14.78438298      14.00024463       0.00000000
O       20.50524460      15.93854801      16.40770254       0.00000000
O       22.72281660      14.60679204      15.69732030       0.00000000
O       22.15918449      16.94508422      14.53594506       0.00000000
O       20.77025008      11.02124989      17.60424998       0.00000000
O       20.77025008      12.81275012      19.39575002       0.00000000
O       22.56175002      11.02124989      19.39575002       0.00000000
O       22.56175002      12.81275012      17.60424998       0.00000000
O       20.82797951      14.62397224      21.26211475       0.00000000
O       19.47356206      16.61213926      22.47888935       0.00000000
O       21.58219121      15.39400728      23.65459247       0.00000000
O       21.96683474      17.04709530      21.58412316       0.00000000
O       20.53407988      18.50564964      17.18405837       0.00000000
O       19.38302493      20.00602019      19.13115562       0.00000000
O       21.69074691      18.89424921      19.60032709       0.00000000
O       21.64152173      20.83440870      17.79359415       0.00000000
O       20.22304560      18.66529220      24.03596997       0.00000000
O       21.89980211      20.11634764      25.61629103       0.00000000
O       22.05826449      17.47483330      25.45642550       0.00000000
O       22.79120150      19.04078621      23.33757943       0.00000000
O       14.53857087      22.43212483      18.60220399       0.00000000
O       17.76551890      21.78032131      18.31606745       0.00000000
O       16.19002923      21.44369944      15.25280489       0.00000000
O       16.13368194      23.94722720      16.96162880       0.00000000
H        8.08707398      14.99350712      12.35196863       0.00000000
H        5.73256253      16.65693798      14.40110263       0.00000000
H        9.41887114      11.35531395      13.34735521       0.00000000
H       12.55879452      10.47996509      15.52286567       0.00000000
H        9.35697673      16.54423996      10.54531524       0.00000000
H       13.35839354      16.64125043      11.06213383       0.00000000
H        5.81449710      11.34960499      16.94814674       0.00000000
H        6.48063377      13.78187770      19.43195267       0.00000000
H        8.42479609      10.08758414      19.24176527       0.00000000
H        6.41833423      13.63550283      21.22537819       0.00000000
H        5.43566198      15.74202816      23.85121898       0.00000000
H        9.35866946      11.29389551      20.52541552       0.00000000
H       12.39704470      11.28512623      23.71674359       0.00000000
H       12.94028343      11.36150558       9.82927977       0.00000000
H       15.15271054      10.14803879      12.56542163       0.00000000
H       15.99875364      13.55037838      10.67076929       0.00000000
H       16.60295182      11.28513677      13.28326196       0.00000000
H       19.64129458      11.29389675      16.47461926       0.00000000
H       17.45142251      14.32358131       9.55236955       0.00000000
H       19.40659555      16.86301730      10.34725905       0.00000000
H       12.72176495      11.24804930      17.26468655       0.00000000
H       16.27821011      11.24805674      19.73537635       0.00000000
H       16.44128465      10.47987023      21.47716134       0.00000000
H       19.58117468      11.35531705      23.65260224       0.00000000
H        6.64718599      10.77077020      23.86328727       0.00000000
H        6.05076648      12.50993778      27.39079808       0.00000000
H        8.67880999      10.22698618      26.25089986       0.00000000
H        8.70960016      16.37455185      26.65822620       0.00000000
H       11.54860185      14.32357821      27.44763563       0.00000000
H       13.84728337      10.14802391      24.43461204       0.00000000
H       13.00122171      13.55035172      26.32920814       0.00000000
H       16.05971599      11.36150744      27.17071949       0.00000000
H       17.61717404      16.13202707      27.89212440       0.00000000
H       20.28673714      14.85117000      25.86580608       0.00000000
H        5.29595332      18.68761220      11.04384954       0.00000000
H        8.29259901      20.33587166      13.24578614       0.00000000
H        8.25301517      20.36328465       9.88718144       0.00000000
H        8.93574535      19.72873139      16.68700629       0.00000000
H       12.68269615      20.40274424      14.52373691       0.00000000
H        6.40062248      16.55346897      16.80079794       0.00000000
H        5.19844604      18.45261081      19.76048122       0.00000000
H        6.68555183      20.10947494      16.98494213       0.00000000
H       12.53596224      18.62902561      11.24361994       0.00000000
H       14.95121303      20.43576017      14.30470986       0.00000000
H       15.46528501      20.53266896      10.51254989       0.00000000
H       17.71937961      20.66052133      15.07800098       0.00000000
H       19.49422949      18.02021134      12.43285618       0.00000000
H       12.64767517      19.63976604      19.35838964       0.00000000
H       15.74749735      20.26483082      23.57057879       0.00000000
H       18.89862459      20.34424631      20.72244052       0.00000000
H       12.92112777      19.30840332      27.59816088       0.00000000
H       15.91015313      17.26902709      26.90509168       0.00000000
H       16.13526070      20.48207324      25.83391615       0.00000000
H       20.32116014      10.22700788      10.74911198       0.00000000
H       22.35282039      10.77078012      13.13671680       0.00000000
H       22.94924599      12.50994336       9.60920599       0.00000000
H       22.58157732      13.63549632      15.77471986       0.00000000
H       21.52438464      17.51851788      14.05655345       0.00000000
H       20.57531904      10.08754663      17.75815259       0.00000000
H       23.18561426      11.34959662      20.05175114       0.00000000
H       22.51944163      13.78188297      17.56815167       0.00000000
H       21.86843426      16.08243296      24.30155412       0.00000000
H       21.67501325      17.60155820      20.81542633       0.00000000
H       18.69380339      20.62005765      18.67734655       0.00000000
H       22.63434282      19.10995186      19.52221232       0.00000000
H       21.61229872      20.94435950      16.83061846       0.00000000
H       22.10178160      20.98129321      25.22857876       0.00000000
H       22.88548804      17.48522326      25.96295180       0.00000000
H       22.64440872      18.37674420      22.61806670       0.00000000
H       17.52849494      23.62632791      19.31027854       0.00000000
H       18.96465179      22.65271928      19.74605566       0.00000000
H       18.91285286      23.54486301      18.19326852       0.00000000
H       15.52203366      23.25489273      14.39623565       0.00000000
H       17.30278649      23.03022705      14.40828026       0.00000000
H       16.29457510      22.07928190      13.29033525       0.00000000
H       14.90052857      23.33150706      21.63715896       0.00000000
H       12.66915634      21.32400100      23.20130917       0.00000000
H       13.18090368      20.34053189      21.83434491       0.00000000
H       12.61114126      22.41875329      20.33844971       0.00000000
H       12.66236106      23.35191901      21.83836681       0.00000000
H       10.39002691      21.63438106      22.12628971       0.00000000
H       10.92852240      20.75578805      20.69988976       0.00000000
H       14.72884393      22.48445779      20.15041312       0.00000000
H       14.98821732      21.66975857      21.69184570       0.00000000
H       16.79475173      24.16486797      16.28185851       0.00000000
H       13.97350297      21.62562759      18.66840957       0.00000000
Sn      16.02528023      21.95863114      17.27679406       0.00000000
C       18.31619613      22.96673502      18.91612309       0.00000000
C       16.33157388      22.51891584      14.29679519       0.00000000
C       12.53703234      21.18397865      22.11747150       0.00000000
C       13.00519268      22.42496383      21.36181791       0.00000000
C       11.07561359      20.84145593      21.79105380       0.00000000
N       14.51100434      22.48061255      21.22574338       0.00000000
O        9.69231185      20.12962046      23.51203990       2.00000000
H        9.19194645      19.76391027      24.25675082       0.00000000
