280

Si      12.31408237      17.47932241      16.76954108       0.00755695       0.00614859       0.01151602
Si      12.70850006      13.70850008      13.12549988      -0.64883218       2.98468227      -0.88342568
Si       9.56708811      17.68415305      13.30206943       0.00958270       0.00677981       0.02444255
Si       9.12549989      13.70850008      16.70849996      -0.66623736       2.84028499      -0.69877620
Si       7.71415399      15.56861540      14.57188131      -0.02359511       0.00733872      -0.01528763
Si      10.91700012      11.91699985      14.91699992      -0.46503622       0.55899575      -0.40663165
Si      11.38538637      16.01802271      11.53513480       0.01393925       0.01700673      -0.00715629
Si       7.33399995      11.91699985      18.50000000      -0.34399278       0.58605253      -1.05537735
Si      12.64256247      17.40460776      24.11133120       0.07309125       0.22931561      -0.21913090
Si      12.70850006      13.70850008      20.29150004       0.19105578       2.30855443      -0.15562254
Si       8.87642092      17.27974906      20.56104578       0.18403131       0.16212029       0.07791327
Si       9.12549989      13.70850008      23.87450012       0.39842392       2.63083728      -0.35337111
Si       7.00055041      15.52451077      22.31530273      -0.02383280      -0.01105667      -0.14107546
Si      10.91700012      11.91699985      22.08300008       0.19821893      -0.79119766      -0.04129878
Si      10.72250002      15.62990674      18.67989622       0.00549380       0.04129377      -0.01039484
Si      14.50000000      11.91699985      11.33399984      -0.22387189       1.13031508      -0.84088829
Si      19.61363960      17.23281165      16.80494046      -0.01843250       0.00390349       0.00818712
Si      19.87450011      13.70850008      13.12549988      -0.72053335       2.31205749      -0.32769834
Si      16.01410044      17.34476071      13.17603226      -0.01232265       0.00171979       0.01045423
Si      16.29149994      13.70850008      16.70849996      -0.48953662       2.41580865      -0.31893182
Si      14.29213670      15.65149669      15.10809789      -0.00647079       0.01551661      -0.00556093
Si      18.08299988      11.91699985      14.91699992      -0.20559552      -0.81239323       0.11740781
Si      17.89213522      15.59736604      11.45573465      -0.01005894      -0.00441592      -0.00589502
Si      14.50000000      11.91699985      18.50000000      -0.11130399      -0.29144268       0.12700401
Si      18.85339068      17.75144041      23.55566039       0.00546037       0.00980492      -0.02246304
Si      19.87450011      13.70850008      20.29150004       0.29628072       2.93150497       0.46301751
Si      15.88270318      17.31198813      20.25929561      -0.00661193       0.02476832      -0.00557864
Si      16.29149994      13.70850008      23.87450012       0.59622323       2.78947809       0.88410010
Si      14.32200902      15.62606708      22.26176743       0.01752860       0.01095922      -0.04530137
Si      18.08299988      11.91699985      22.08300008       0.20054869       0.62739448       0.57179410
Si      17.89818375      15.61635292      18.69553945      -0.00983520      -0.00546353       0.01521782
Si       7.33399995      11.91699985      25.66600016       0.28087313      -0.17614417      -0.24117712
Si      10.71461260      15.68959817      25.86208869       0.15997946      -0.14467143       0.01866709
Si      14.50000000      11.91699985      25.66600016       0.17465463       1.28279667       0.90397322
Si      18.13645558      15.60787194      25.70046862       0.00541123       0.01648465      -0.00365725
Si       7.45806369      19.02089444      11.58299171      -0.02451728      -0.00162500       0.02576098
Si      10.75143390      19.59104396      15.23132417       0.00686903       0.01427706       0.02623947
Si       7.06696998      18.37592022      18.42581278       0.01796942       0.00508011      -0.00210629
Si      10.55886085      19.09614198      22.59190807       0.32159498       0.33229264      -0.78868484
Si      14.41464256      19.57179110      12.03018037      -0.00403248      -0.00576476       0.00666707
Si      18.58879410      18.68217139      14.27590425      -0.00695955       0.03253944       0.01611584
Si      14.44495887      19.02229626      18.31155234      -0.01620639       0.02871686       0.01205362
Si      17.10571786      19.64885276      21.78241356      -0.01917941       0.02349165      -0.02059841
Si      14.55561533      19.04742176      25.97275236       0.01232615       0.04616916       0.00210096
Si      21.66600005      11.91699985      11.33399984      -0.15711928      -0.05998984       0.30858790
Si      21.51967678      15.56962910      15.14618088      -0.00553759       0.01714111       0.00479041
Si      21.66600005      11.91699985      18.50000000       0.42958312       0.58436766       0.98096953
Si      20.86140607      15.97248774      22.23973578      -0.02092222      -0.00920140      -0.01125971
Si      20.89174848      19.59109759      18.33784602      -0.00408926       0.01672511       0.01386306
Si      21.59700934      18.98771142      24.57869670      -0.01355319      -0.00643148      -0.00803711
O        7.46740807      14.75356898      13.16534222       0.00274494       0.01242126       0.01756543
O        6.32999153      16.29788761      15.13396311       0.00723690       0.01450043       0.00640083
O        8.09526068      14.51738525      15.72138214      -0.01089528      -0.01385796      -0.01167438
O        8.87575015      16.70086715      14.39411555      -0.02035270      -0.00245769       0.01480739
O       10.02124986      11.02124989      14.02124990      -1.93970331      -2.28696204      -1.99935884
O       10.02124986      12.81275012      15.81274994       0.25802308       0.16077839       0.47818261
O       11.81275009      11.02124989      15.81274994       1.50917623      -2.07852032       2.01398531
O       11.81275009      12.81275012      14.02124990       0.70970015       0.77946068      -0.19770040
O       10.17344708      15.89115490      10.44309904      -0.01750353       0.00846911      -0.00820408
O       10.94251751      17.02079273      12.75792745       0.00292913      -0.00169276      -0.00034308
O       11.72319229      14.53685976      12.08969635       0.01722339       0.01718976       0.03061737
O       12.68204858      16.72746050      10.79338877       0.01733409       0.00378669      -0.01027274
O        6.43824998      11.02124989      17.60424998      -1.87032002      -2.47033021      -1.82105620
O        6.43824998      12.81275012      19.39575002      -1.79026636       2.18611247       2.38636718
O        8.22974992      11.02124989      19.39575002       1.70318504      -2.33855022       1.87577433
O        8.22974992      12.81275012      17.60424998       0.71652065       0.61157481      -0.00326693
O        6.03842901      14.50723120      21.45426870       0.02314231      -0.00302120       0.02904393
O        6.10509624      16.29078613      23.45650187       0.02362666       0.03930488       0.05594966
O        8.23124081      14.67127018      22.91904949       0.01103647       0.00972692       0.03768775
O        7.57959689      16.71873803      21.37361055      -0.04302700      -0.05819795       0.08751203
O       10.02124986      11.02124989      21.18725006      -1.24154527      -2.04364537      -1.19426457
O       10.02124986      12.81275012      22.97875010      -0.78094441       1.24801739       0.87294045
O       11.81275009      11.02124989      22.97875010       1.18196716      -2.02054097       1.30987425
O       11.81275009      12.81275012      21.18725006       0.60502943       1.21884190      -0.54401148
O       10.00571688      14.77972492      17.51012346      -0.00081107       0.00010173      -0.00961426
O        9.60733837      16.05638924      19.77972936      -0.00425025      -0.03015669       0.00634609
O       11.82251613      14.68979485      19.35967835       0.00314906      -0.02014553       0.00822507
O       11.43996060      16.93913160      18.03099799      -0.01033020      -0.02086328      -0.00126199
O       13.60425003      11.02124989      10.43824982      -1.85525244      -2.33688581      -1.84941956
O       13.60425003      12.81275012      12.22974986      -0.29773704       0.64760259       1.08410079
O       15.39574997      11.02124989      12.22974986       1.92608106      -2.54397508       1.96962708
O       15.39574997      12.81275012      10.43824982       2.02118966       1.64981527      -1.69141829
O       13.53148932      14.84975609      13.92161297      -0.00207445      -0.01549404       0.00339095
O       13.20365592      16.25855636      16.15151565      -0.01109861      -0.01186210       0.01273528
O       15.30257732      14.62090634      15.79096767      -0.00440783      -0.01120049       0.00175084
O       15.14263304      16.88622638      14.45770708      -0.00214761      -0.00589249      -0.00605968
O       17.18724991      11.02124989      14.02124990      -1.18537868      -2.00742669      -1.32754668
O       17.18724991      12.81275012      15.81274994      -0.56815733       1.20288409       0.64658266
O       18.97875014      11.02124989      15.81274994       1.24200302      -2.04454885       1.18157839
O       18.97875014      12.81275012      14.02124990       0.86113846       1.26897581      -0.68374425
O       17.05304922      14.92590046      10.20114272       0.02693194      -0.01608629      -0.01778141
O       16.74576754      16.04641034      12.50722988       0.00668028      -0.00194236      -0.01413482
O       18.91338211      14.54244131      12.08202551       0.00042748       0.00008537      -0.01692440
O       18.71374698      16.97409371      11.00813714      -0.00184584      -0.01218692      -0.02248093
O       13.60425003      11.02124989      17.60424998      -1.42393190      -2.10058477      -1.50963857
O       13.60425003      12.81275012      19.39575002      -0.59838221       0.75969118       0.35356608
O       15.39574997      11.02124989      19.39575002       1.46546366      -2.10775966       1.47214530
O       15.39574997      12.81275012      17.60424998       0.84772903       0.95285607      -0.32318910
O       13.69544459      14.66648843      21.14735111      -0.01822041      -0.00570280       0.01072241
O       13.14758036      16.10407840      23.27648688      -0.02512372      -0.01182762       0.05043213
O       15.46914346      14.80909835      23.04265058      -0.01850447      -0.00957144      -0.00385578
O       15.02037078      16.93521041      21.58211924       0.00541004      -0.02048503       0.00305825
O       17.18724991      11.02124989      21.18725006      -1.46824412      -2.09358926      -2.04496168
O       17.18724991      12.81275012      22.97875010      -0.55279984       0.54476587      -0.01050606
O       18.97875014      11.02124989      22.97875010       2.01326641      -2.30299807       1.99530992
O       18.97875014      12.81275012      21.18725006      -0.03916047       0.24166080      -0.47370547
O       17.18547163      14.77212961      17.53598461      -0.00329992      -0.00449188      -0.01541654
O       16.84418281      16.07280188      19.84395692       0.00843483       0.00651663       0.00084368
O       19.01936435      14.67612881      19.34555101      -0.00944896       0.00343648      -0.00212687
O       18.64303628      16.92296076      18.07064904      -0.00541304      -0.00978227       0.00232287
O        6.43824998      11.02124989      24.77025014      -2.34626500      -2.13791262      -2.39986165
O        6.43824998      12.81275012      26.56175018      -1.86127923       2.17864456       2.02973046
O        8.22974992      11.02124989      26.56175018       2.17306034      -2.04485153       2.54234687
O        8.22974992      12.81275012      24.77025014       0.23142786       0.93589270      -0.36207090
O       10.04578908      14.70586215      24.77479633      -0.01631132       0.08414951       0.04420625
O        9.62225394      16.24166415      26.95241838      -0.03712810       0.09782236      -0.01242148
O       11.87255911      14.87834615      26.72181921      -0.03273944       0.01848270      -0.03021853
O       11.46861376      16.92634968      25.13240466      -0.16659965      -0.03036208       0.07689854
O       13.60425003      11.02124989      24.77025014      -1.93663215      -2.57665218      -1.99733518
O       13.60425003      12.81275012      26.56175018      -1.95889712       1.60007804       1.69746884
O       15.39574997      11.02124989      26.56175018       1.88934693      -2.38346100       1.86466161
O       15.39574997      12.81275012      24.77025014       0.30520495       0.60264954      -1.02142933
O       17.29807892      14.51735797      24.87359040       0.00097858      -0.02790446       0.00652059
O       17.27554650      15.95925880      27.06966953      -0.01461380      -0.00085402       0.01082655
O       19.61403139      15.04852065      26.13362466      -0.01332604      -0.00701383       0.00516020
O       18.23664043      16.98929456      24.84290519      -0.01073651      -0.02213115       0.00016178
O        5.99600085      18.27449008      11.68475836      -0.00168949      -0.01435373       0.02725503
O        7.58553232      20.30196541      12.59043918       0.00671965       0.01226427       0.00409477
O        8.54604277      17.85423703      12.01604785      -0.02536314      -0.01067681      -0.02822921
O        7.67015026      19.45669430      10.01156138       0.00259425      -0.00709914       0.01415719
O        9.79569801      19.17762703      13.92249098      -0.02588545      -0.01343088      -0.03644903
O        9.85913986      20.28096694      16.39175924       0.00010021       0.01626030      -0.01564513
O       11.35095728      18.10395071      15.62630731       0.00631617      -0.02433105      -0.00181364
O       11.87681428      20.67669341      14.83195986       0.00496843       0.00467638      -0.00744439
O        7.01172266      16.88773825      17.77260368      -0.00024425      -0.01327669       0.00283007
O        5.66836813      18.87492133      19.13274440       0.00365708      -0.00645814      -0.00138304
O        8.30813286      18.37890490      19.49454409      -0.01837786      -0.00761189      -0.00447451
O        7.35578040      19.50258267      17.24002013      -0.00548261      -0.01196132      -0.00036772
O        9.94147347      17.94844324      21.57624882       0.05993959      -0.02303750       0.20061695
O       12.03745862      18.55055717      23.12400729      -0.36595187      -0.10385133       0.07958063
O       12.98033881      19.49637771      11.26880510       0.00243657       0.01144994       0.00947150
O       14.22785298      20.12524371      13.56770501      -0.00323460       0.02376820      -0.02010355
O       15.02117524      18.02082545      12.06283657      -0.00512355      -0.01187569      -0.01370119
O       15.46546017      20.61563829      11.31739757       0.00411675       0.01277887      -0.00350736
O       17.12796173      18.45398039      13.57601632       0.02777739       0.00899848      -0.01164201
O       18.72177447      20.24433672      14.71884457       0.03458770       0.00342995      -0.02065770
O       18.67370030      17.68520891      15.56179781      -0.00306711       0.00471562      -0.01394280
O       19.82790088      18.28119569      13.26431870      -0.01032017      -0.00445791      -0.00183062
O       13.24679864      18.71493126      17.27502250       0.00374193       0.00601735       0.00914388
O       13.92010266      20.17240711      19.37762631       0.01283012      -0.00885080       0.00144823
O       14.86876951      17.61982805      19.01550250       0.00090741      -0.00455620      -0.00751196
O       15.70661199      19.63073140      17.44055162       0.01453003      -0.00883563      -0.00796871
O       16.72735718      18.67502868      20.51356812       0.00449757      -0.00500472      -0.00476319
O       15.73967779      20.39856978      22.27580153       0.00066844      -0.00431219      -0.00521329
O       17.68488498      18.69705511      22.97700000       0.00551179      -0.03334264      -0.02196121
O       18.18249801      20.75531747      21.27095849      -0.00674592       0.00379784       0.01732181
O       13.92639421      17.97859942      24.92131522      -0.02838264      -0.02809046      -0.00475884
O       13.42064204      19.86552757      26.83402615       0.00496980      -0.00727594       0.02405045
O       15.56598287      18.33492954      27.03117510      -0.00284597      -0.00370130      -0.00896874
O       15.27193186      20.18963443      24.99844801      -0.00118032      -0.02777115       0.00149272
O       20.77025008      11.02124989      10.43824982      -2.21701157      -2.06467734      -2.56702723
O       20.77025008      12.81275012      12.22974986      -0.07626059       0.90771434       0.63283037
O       22.56175002      11.02124989      12.22974986       2.33079553      -2.18361433       2.39785936
O       22.56175002      12.81275012      10.43824982       1.80151779       2.12952063      -2.07324200
O       20.69328205      14.78495369      13.99434757      -0.01153777       0.00162214      -0.00807782
O       20.49141885      15.91666666      16.39438180      -0.00341613      -0.00760067       0.00182967
O       22.72552288      14.60516919      15.69892388       0.00615443       0.00632624      -0.00358802
O       22.15949740      16.94528076      14.54386528       0.00502969      -0.00718923      -0.00552199
O       20.77025008      11.02124989      17.60424998      -1.71015980      -2.32538846      -1.85766349
O       20.77025008      12.81275012      19.39575002      -0.40783780       0.67627788       0.47710118
O       22.56175002      11.02124989      19.39575002       1.87703033      -2.49572080       1.85469757
O       22.56175002      12.81275012      17.60424998       1.81780098       1.96185976      -2.18583187
O       20.78498788      14.67652871      21.26227089       0.00446277       0.00517528       0.00882742
O       19.36882624      16.66018027      22.43070277       0.02057914      -0.01711515      -0.01311579
O       21.42181396      15.45907845      23.70151920       0.00521560       0.00373753       0.00873137
O       21.91067334      17.10830077      21.66122043      -0.00481784      -0.01400765       0.01399423
O       20.61667652      18.45881763      17.20082677       0.00230493      -0.00490072       0.00624214
O       19.50329431      20.15511097      18.98709501       0.00633151      -0.01426882      -0.01679840
O       21.72573715      18.95899829      19.62738519      -0.03109073      -0.01382990       0.01382505
O       21.83659226      20.76404614      17.68900477       0.01693874      -0.00969197       0.01624011
O       20.10015665      18.68590658      24.03144154      -0.00502995      -0.02976511       0.00801173
O       21.64090026      20.17177812      25.70577960       0.01536584       0.01571671      -0.00237210
O       22.04265205      17.57742780      25.35160635       0.01179217      -0.00977346       0.01348007
O       22.60728785      19.35791063      23.34583598       0.01170716      -0.00297607       0.01019648
O       14.86491744      22.41479335      17.66327497       0.00968357       0.01605300      -0.01654226
O       17.75165458      21.82221750      17.77213452       0.00623020      -0.00029344       0.01230791
O       16.24412931      21.51749463      15.08870212       0.00351167       0.00028588      -0.01228315
O        9.50473869      19.40110231      23.81236713      -0.00647754       0.04938835       0.12486780
H        7.55761228      15.25209393      12.33747536      -0.00526619       0.00134982       0.00058923
H        5.88186120      16.91623500      14.53325516       0.00829738      -0.01504142       0.00078488
H        9.41887114      11.35531395      13.34735521      -0.04599012       0.03476020      -0.02863337
H       12.55879452      10.47996509      15.52286567      -0.02336906      -0.01210286      -0.04997966
H        9.52142355      16.61457772      10.46379018       0.02890939      -0.01602723       0.01188828
H       13.55500107      16.68874491      11.22892465      -0.00718326       0.01513830       0.00129587
H        5.81449710      11.34960499      16.94814674      -0.02941945       0.01334885      -0.00541405
H        6.48063377      13.78187770      19.43195267      -0.11031790      -0.01272083      -0.18675817
H        8.42479609      10.08758414      19.24176527      -0.02855427      -0.02149200      -0.05303663
H        6.41833423      13.63550283      21.22537819      -0.22579115       0.07240824       0.13677989
H        5.46002169      15.74684835      23.93386551       0.00019578      -0.00419289      -0.00718732
H        9.35866946      11.29389551      20.52541552      -0.06188548      -0.01606487      -0.03024816
H       12.39704470      11.28512623      23.71674359       0.03283498      -0.03158911       0.04037879
H       12.94028343      11.36150558       9.82927977      -0.03278895       0.01698761      -0.03331270
H       15.15271054      10.14803879      12.56542163      -0.02225091      -0.01629551      -0.02109904
H       15.99875364      13.55037838      10.67076929      -0.35687268      -0.03408179      -0.12120890
H       16.60295182      11.28513677      13.28326196      -0.02363274      -0.03440927      -0.02295610
H       19.64129458      11.29389675      16.47461926       0.05912792      -0.01427617       0.03735288
H       17.45142251      14.32358131       9.55236955       0.18449431       0.14280842       0.07935953
H       19.34734478      16.88883255      10.27867252       0.00825556       0.00379022      -0.01795655
H       12.72176495      11.24804930      17.26468655      -0.02242630       0.00312205      -0.00148541
H       16.27821011      11.24805674      19.73537635       0.01730881      -0.00655085       0.01441546
H       16.44128465      10.47987023      21.47716134       0.02024303      -0.00217904       0.05619162
H       19.58117468      11.35531705      23.65260224       0.01443993       0.01077836       0.03610015
H        6.64718599      10.77077020      23.86328727      -0.03378706      -0.01472701      -0.01634470
H        6.05076648      12.50993778      27.39079808      -0.00449367       0.00257135       0.00860289
H        8.67880999      10.22698618      26.25089986       0.00037331      -0.00704394       0.01142467
H        8.73711333      16.46974944      26.63168277      -0.03817099      -0.04965075       0.04656330
H       11.54860185      14.32357821      27.44763563      -0.08210472       0.02567072       0.16167638
H       13.84728337      10.14802391      24.43461204       0.02395673      -0.01327400       0.02420948
H       13.00122171      13.55035172      26.32920814       0.22982495       0.03568459       0.02648021
H       16.05971599      11.36150744      27.17071949       0.01704625       0.02329929       0.02644459
H       17.79590133      16.19878526      27.85199716       0.01062905       0.00329727       0.00710121
H       20.27401977      15.02340321      25.41065946       0.01062074       0.00151530      -0.00958914
H        5.30601980      18.58519378      11.08018687      -0.02628973      -0.00272246       0.00701725
H        8.34074133      20.24735829      13.21442827       0.00207981       0.00859729       0.00060447
H        8.25561096      20.21349761       9.85412046      -0.00977905      -0.00037688      -0.00862750
H        8.99576143      19.89480397      16.66685461      -0.00535330       0.00042601       0.00690909
H       12.68893086      20.41550012      14.33672596       0.00691847       0.00388344       0.00307486
H        6.61617136      16.74812448      16.88109756       0.00089703       0.00089689       0.00237527
H        5.44884451      18.48614692      19.99382912      -0.00168298       0.00171854       0.00289975
H        6.90182890      20.35206730      17.36188333       0.00035862      -0.00477981      -0.00428675
H       12.69174357      18.58646385      11.02184490      -0.00563736      -0.00592525      -0.00370902
H       14.98976012      20.50744426      14.06311910      -0.00715936      -0.00830148       0.00425474
H       15.58633014      20.54083870      10.35889074       0.00378028      -0.00311098       0.00745163
H       17.87533088      20.74918691      14.75855223      -0.02382031      -0.01601508      -0.00583324
H       19.54603538      17.89236548      12.40487419       0.00180363      -0.00680525      -0.00578387
H       14.34532154      20.21748142      20.25645438      -0.00446206       0.00147762       0.00792867
H       15.48969837      20.29298223      23.22635225      -0.01362985      -0.00493016       0.00892882
H       18.78874852      20.47792544      20.54038572      -0.00186263      -0.00601861      -0.00603158
H       13.09656501      19.43401842      27.63927565       0.00869172       0.01345161       0.00620811
H       16.07974890      17.52189161      26.83937635      -0.00587832       0.00949045       0.00470530
H       15.59810182      20.98249508      25.45162031       0.01172096       0.00250127       0.00595077
H       20.32116014      10.22700788      10.74911198       0.00500293      -0.00618399      -0.00422459
H       22.35282039      10.77078012      13.13671680       0.03805529      -0.01031251       0.00599919
H       22.94924599      12.50994336       9.60920599       0.02119309      -0.00010969       0.00947695
H       22.58157732      13.63549632      15.77471986       0.08047238       0.50118106      -0.17797117
H       21.52238103      17.49116565      14.03307954       0.00032662      -0.00074861      -0.01019602
H       20.57531904      10.08754663      17.75815259       0.02580154      -0.02250847       0.05614799
H       23.18561426      11.34959662      20.05175114       0.03193883       0.00277306      -0.00538736
H       22.51944163      13.78188297      17.56815167       0.06479145       0.03800120       0.02044961
H       21.78506796      16.16911764      24.29014739       0.00696779      -0.00574296       0.00115016
H       21.65353527      17.63959737      20.86789566       0.00514641      -0.01134468       0.01650004
H       18.86481465      20.65174678      18.40572807      -0.00857231       0.00346215       0.00379516
H       22.67535781      19.15920900      19.60066453       0.02092397       0.01450209       0.00950024
H       21.85528479      20.81620457      16.72068554       0.02226762      -0.00816782       0.00712999
H       21.60225834      21.08807674      25.39272001       0.02102359      -0.00340646       0.00463162
H       22.86577993      17.60568337      25.86452366      -0.00500439       0.00917855      -0.00823330
H       22.55099363      18.67885377      22.63550628       0.00813814      -0.00211720      -0.00493550
H       17.97707622      22.65347351      19.66393601       0.01076328       0.01981591      -0.01207519
H       18.96950407      23.39293976      18.35922647      -0.00573151      -0.01123393      -0.00217263
H       17.20671413      23.72883623      18.45192775       0.01180971       0.00016408      -0.00642351
H       15.29581800      23.35053610      14.71815526       0.00299154      -0.00778951      -0.00660751
H       17.09034844      23.37199027      14.59686667      -0.00991823      -0.00899158      -0.00462891
H       16.11224746      22.58609253      13.31799867       0.00074147      -0.01022861       0.00582269
H       14.23366632      22.02066028      18.30792856      -0.01314567      -0.00019223       0.00735865
H       10.96948751      22.07003801      23.27681470       0.00548239      -0.01541585      -0.02025968
H       12.52180792      21.43435294      22.73175956       0.02259047       0.00075383      -0.00099206
H       12.26860689      22.74138858      20.58663794       0.00958848      -0.00091186      -0.00457499
H       10.75596428      23.42397262      21.20804665       0.01523067      -0.00802930       0.00235092
H        9.84816539      21.00197920      21.24206926       0.00834574       0.02220240      -0.02251389
H       11.41476975      20.37317241      20.71380990      -0.02062135       0.07499328       0.04011072
H       12.52792286      24.93275967      21.71725693       0.00999134      -0.00501459       0.01023307
H       13.36049865      23.78399763      22.53776005       0.00015393       0.00486771      -0.00821833
H        9.14696337      18.68150241      24.35210944       0.07474117      -0.02353022      -0.01838076
Ti      16.14869727      21.33346034      16.97270623      -0.00013664       0.00829750       0.00444465
C       17.98626313      22.96961368      18.61025334       0.01340438       0.01200957      -0.00536380
C       16.18189415      22.78271623      14.39748107      -0.00040054       0.01342034      -0.01368015
C       11.53998624      21.79093261      22.37715563      -0.00075696       0.06009943      -0.04438531
C       11.74068132      23.03655539      21.51727859       0.01337402       0.00111824       0.03967682
C       10.83503858      20.67213703      21.60583439      -0.07623744      -0.55620008       0.35187902
N       12.41953275      24.08986967      22.28230280       0.02035701       0.02136957      -0.01561182
